Version 4
SHEET 1 880 680
WIRE 64 64 48 64
WIRE 96 64 64 64
WIRE 240 64 176 64
WIRE 304 64 240 64
WIRE 384 64 304 64
WIRE 416 64 384 64
WIRE 240 96 240 64
WIRE 304 96 304 64
WIRE 48 144 48 64
WIRE 240 176 240 160
WIRE 304 176 304 160
FLAG 48 224 0
FLAG 240 176 0
FLAG 304 176 0
FLAG 384 64 OP
FLAG 64 64 IP
SYMBOL voltage 48 128 R0
WINDOW 123 0 0 Left 0
WINDOW 39 0 0 Left 0
SYMATTR InstName V1
SYMATTR Value SINE(0 10 100)
SYMBOL diode 256 160 R180
WINDOW 0 24 64 Left 2
WINDOW 3 24 0 Left 2
SYMATTR InstName D1
SYMATTR Value 1N4148
SYMBOL diode 288 96 R0
SYMATTR InstName D2
SYMATTR Value 1N4148
SYMBOL res 192 48 R90
WINDOW 0 0 56 VBottom 2
WINDOW 3 32 56 VTop 2
SYMATTR InstName R1
SYMATTR Value 1k
TEXT 14 248 Left 2 !.tran 0.1
